Adding readme file to new git repo
New line. Tesing versions
Secon line try
